Version 4
SHEET 1 880 680
FLAG 112 224 0
